@<TRIPOS>MOLECULE
ATP
   43    45     1     0     0
SMALL
bcc


@<TRIPOS>ATOM
      1 N1          10.4000     1.2870    -3.0780 nv         1 ATP      -0.997500
      2 C1          10.6380     0.9560    -1.8030 ca         1 ATP       0.700200
      3 N2          11.5160    -0.0360    -1.5130 nb         1 ATP      -0.848000
      4 C2          11.7540    -0.3530    -0.2230 ca         1 ATP       0.621900
      5 N3          11.1640     0.2250     0.8370 nb         1 ATP      -0.766000
      6 C3          10.2920     1.2030     0.5810 ca         1 ATP       0.438800
      7 C4           9.9910     1.6170    -0.7310 ca         1 ATP      -0.218200
      8 N4           9.0920     2.6180    -0.6610 nc         1 ATP      -0.628100
      9 C5           8.8500     2.8230     0.6330 cd         1 ATP       0.406700
     10 N5           9.5600     1.9630     1.4040 na         1 ATP      -0.222000
     11 C6           9.5500     1.8560     2.8820 c5         1 ATP       0.228800
     12 O1           8.4490     2.6080     3.3770 os         1 ATP      -0.344600
     13 C7           8.9270     3.6270     4.2130 c5         1 ATP       0.062100
     14 C8           8.0600     4.8470     4.0960 c3         1 ATP       0.228400
     15 O2           6.7840     4.4930     4.4940 os         1 ATP      -0.559200
     16 P1           5.8210     5.5600     5.1870 p5         1 ATP       1.507800
     17 O3           5.8750     6.8270     4.3920 o          1 ATP      -0.884500
     18 O4           4.4840     4.9400     5.3310 o          1 ATP      -0.884500
     19 O5           6.4670     5.8460     6.6210 os         1 ATP      -0.729800
     20 P2           6.8760     4.8450     7.8060 p5         1 ATP       1.584800
     21 O6           8.3500     4.8870     7.9710 o          1 ATP      -0.925000
     22 O7           6.3040     3.4990     7.5690 o          1 ATP      -0.925000
     23 O8           6.1710     5.5640     9.0480 os         1 ATP      -0.736800
     24 P3           6.0860     5.1210    10.5830 p5         1 ATP       1.443900
     25 O9           6.0270     6.3950    11.3510 o          1 ATP      -0.928833
     26 O10          4.8280     4.3310    10.7050 o          1 ATP      -0.928833
     27 O11          7.3090     4.3040    10.9300 o          1 ATP      -0.928833
     28 C9          10.3370     3.8900     3.7850 c5         1 ATP       0.076100
     29 O12         11.0900     4.5200     4.7960 oh         1 ATP      -0.613800
     30 C10         10.7840     2.4730     3.5000 c5         1 ATP       0.070100
     31 O13         11.0810     1.7910     4.7160 oh         1 ATP      -0.611800
     32 H1           9.7330     2.0400    -3.2990 hn         1 ATP       0.432800
     33 H2          10.8840     0.7880    -3.8380 hn         1 ATP       0.432800
     34 H3          12.4890    -1.1470    -0.0240 h5         1 ATP       0.022100
     35 H4           8.1640     3.5890     1.0240 h5         1 ATP       0.111800
     36 H5           9.4980     0.7870     3.1370 h2         1 ATP       0.106700
     37 H6           8.9010     3.3380     5.2740 h1         1 ATP       0.127700
     38 H7           8.4470     5.6460     4.7450 h1         1 ATP       0.020200
     39 H8           8.0530     5.2180     3.0600 h1         1 ATP       0.020200
     40 H9          10.4540     4.5820     2.9380 h1         1 ATP       0.078700
     41 H10         10.7530     4.2380     5.6830 ho         1 ATP       0.452000
     42 H11         11.6840     2.4230     2.8700 h1         1 ATP       0.069700
     43 H12         10.8320     2.3630     5.4850 ho         1 ATP       0.437000
@<TRIPOS>BOND
     1     2     1 1   
     2     3     2 ar  
     3     4     3 ar  
     4     5     4 ar  
     5     6     5 ar  
     6     7     6 ar  
     7     7     2 ar  
     8     8     7 1   
     9     9     8 2   
    10    10     9 1   
    11    10     6 1   
    12    11    10 1   
    13    12    11 1   
    14    13    12 1   
    15    14    13 1   
    16    15    14 1   
    17    16    15 1   
    18    17    16 1   
    19    18    16 1   
    20    19    16 1   
    21    20    19 1   
    22    21    20 1   
    23    22    20 1   
    24    23    20 1   
    25    24    23 1   
    26    25    24 1   
    27    26    24 1   
    28    27    24 1   
    29    28    13 1   
    30    29    28 1   
    31    30    28 1   
    32    30    11 1   
    33    31    30 1   
    34     1    32 1   
    35     1    33 1   
    36     4    34 1   
    37     9    35 1   
    38    11    36 1   
    39    13    37 1   
    40    14    38 1   
    41    14    39 1   
    42    28    40 1   
    43    29    41 1   
    44    30    42 1   
    45    31    43 1   
@<TRIPOS>SUBSTRUCTURE
     1 ATP         1 TEMP              0 ****  ****    0 ROOT
