
     RDKit          3D

 43 45  0  0  0  0  0  0  0  0999 V2000
   10.4000    1.2870   -3.0780 N   0  0  0  0  0  0  0  0  0  0  0  0
   10.6380    0.9560   -1.8030 C   0  0  0  0  0  0  0  0  0  0  0  0
   11.5160   -0.0360   -1.5130 N   0  0  0  0  0  0  0  0  0  0  0  0
   11.7540   -0.3530   -0.2230 C   0  0  0  0  0  0  0  0  0  0  0  0
   11.1640    0.2250    0.8370 N   0  0  0  0  0  0  0  0  0  0  0  0
   10.2920    1.2030    0.5810 C   0  0  0  0  0  0  0  0  0  0  0  0
    9.9910    1.6170   -0.7310 C   0  0  0  0  0  0  0  0  0  0  0  0
    9.0920    2.6180   -0.6610 N   0  0  0  0  0  0  0  0  0  0  0  0
    8.8500    2.8230    0.6330 C   0  0  0  0  0  0  0  0  0  0  0  0
    9.5600    1.9630    1.4040 N   0  0  0  0  0  0  0  0  0  0  0  0
    9.5500    1.8560    2.8820 C   0  0  2  0  0  0  0  0  0  0  0  0
    8.4490    2.6080    3.3770 O   0  0  0  0  0  0  0  0  0  0  0  0
    8.9270    3.6270    4.2130 C   0  0  2  0  0  0  0  0  0  0  0  0
    8.0600    4.8470    4.0960 C   0  0  0  0  0  0  0  0  0  0  0  0
    6.7840    4.4930    4.4940 O   0  0  0  0  0  0  0  0  0  0  0  0
    5.8210    5.5600    5.1870 P   0  0  0  0  0  0  0  0  0  0  0  0
    5.8750    6.8270    4.3920 O   0  0  0  0  0  0  0  0  0  0  0  0
    4.4840    4.9400    5.3310 O   0  0  0  0  0  0  0  0  0  0  0  0
    6.4670    5.8460    6.6210 O   0  0  0  0  0  0  0  0  0  0  0  0
    6.8760    4.8450    7.8060 P   0  0  0  0  0  0  0  0  0  0  0  0
    8.3500    4.8870    7.9710 O   0  0  0  0  0  0  0  0  0  0  0  0
    6.3040    3.4990    7.5690 O   0  0  0  0  0  0  0  0  0  0  0  0
    6.1710    5.5640    9.0480 O   0  0  0  0  0  0  0  0  0  0  0  0
    6.0860    5.1210   10.5830 P   0  0  0  0  0  0  0  0  0  0  0  0
    6.0270    6.3950   11.3510 O   0  0  0  0  0  0  0  0  0  0  0  0
    4.8280    4.3310   10.7050 O   0  0  0  0  0  0  0  0  0  0  0  0
    7.3090    4.3040   10.9300 O   0  0  0  0  0  0  0  0  0  0  0  0
   10.3370    3.8900    3.7850 C   0  0  1  0  0  0  0  0  0  0  0  0
   11.0900    4.5200    4.7960 O   0  0  0  0  0  0  0  0  0  0  0  0
   10.7840    2.4730    3.5000 C   0  0  1  0  0  0  0  0  0  0  0  0
   11.0810    1.7910    4.7160 O   0  0  0  0  0  0  0  0  0  0  0  0
    9.7332    2.0404   -3.2986 H   0  0  0  0  0  0  0  0  0  0  0  0
   10.8837    0.7883   -3.8384 H   0  0  0  0  0  0  0  0  0  0  0  0
   12.4887   -1.1470   -0.0235 H   0  0  0  0  0  0  0  0  0  0  0  0
    8.1644    3.5891    1.0243 H   0  0  0  0  0  0  0  0  0  0  0  0
    9.4982    0.7872    3.1368 H   0  0  0  0  0  0  0  0  0  0  0  0
    8.9010    3.3380    5.2740 H   0  0  0  0  0  0  0  0  0  0  0  0
    8.4473    5.6460    4.7453 H   0  0  0  0  0  0  0  0  0  0  0  0
    8.0527    5.2178    3.0604 H   0  0  0  0  0  0  0  0  0  0  0  0
   10.4537    4.5817    2.9377 H   0  0  0  0  0  0  0  0  0  0  0  0
   10.7528    4.2378    5.6830 H   0  0  0  0  0  0  0  0  0  0  0  0
   11.6841    2.4232    2.8697 H   0  0  0  0  0  0  0  0  0  0  0  0
   10.8319    2.3631    5.4846 H   0  0  0  0  0  0  0  0  0  0  0  0
  2  1  1  0
  3  2  2  0
  4  3  1  0
  5  4  2  0
  6  5  1  0
  7  6  2  0
  7  2  1  0
  8  7  1  0
  9  8  2  0
 10  9  1  0
 10  6  1  0
 11 10  1  0
 12 11  1  0
 13 12  1  0
 14 13  1  0
 15 14  1  0
 16 15  1  0
 17 16  2  0
 18 16  1  0
 19 16  1  0
 20 19  1  0
 21 20  2  0
 22 20  1  0
 23 20  1  0
 24 23  1  0
 25 24  2  0
 26 24  1  0
 27 24  1  0
 28 13  1  0
 29 28  1  0
 30 28  1  0
 30 11  1  0
 31 30  1  0
  1 32  1  0
  1 33  1  0
  4 34  1  0
  9 35  1  0
 11 36  1  6
 13 37  1  1
 14 38  1  0
 14 39  1  0
 28 40  1  6
 29 41  1  0
 30 42  1  6
 31 43  1  0
M  CHG  4  18  -1  22  -1  26  -1  27  -1
M  END
