
     RDKit          3D

 73 77  0  0  0  0  0  0  0  0999 V2000
   -2.1610   -4.7960   -1.4210 N   0  0  0  0  0  0  0  0  0  0  0  0
   -1.9310   -3.9010   -0.4620 C   0  0  0  0  0  0  0  0  0  0  0  0
   -2.8110   -3.1360   -0.0690 O   0  0  0  0  0  0  0  0  0  0  0  0
   -0.5780   -3.8410    0.1700 C   0  0  0  0  0  0  0  0  0  0  0  0
   -0.4330   -3.2790    1.4180 C   0  0  0  0  0  0  0  0  0  0  0  0
    0.8310   -3.2350    2.0040 C   0  0  0  0  0  0  0  0  0  0  0  0
    1.9190   -3.7360    1.3200 C   0  0  0  0  0  0  0  0  0  0  0  0
    1.7800   -4.2620    0.0810 N   0  0  0  0  0  0  0  0  0  0  0  0
    2.9190   -4.7740   -0.6670 C   0  0  2  0  0  0  0  0  0  0  0  0
    3.4670   -5.8780    0.0860 O   0  0  0  0  0  0  0  0  0  0  0  0
    4.9000   -5.6960    0.2090 C   0  0  2  0  0  0  0  0  0  0  0  0
    5.3450   -6.3390    1.5250 C   0  0  0  0  0  0  0  0  0  0  0  0
    4.8200   -5.6540    2.6250 O   0  0  0  0  0  0  0  0  0  0  0  0
    5.5180   -5.7090    4.0450 P   0  0  1  0  0  0  0  0  0  0  0  0
    4.9270   -4.6450    4.9220 O   0  0  0  0  0  0  0  0  0  0  0  0
    5.4630   -7.1230    4.5850 O   0  0  0  0  0  0  0  0  0  0  0  0
    7.0400   -5.3120    3.6920 O   0  0  0  0  0  0  0  0  0  0  0  0
    8.3960   -5.6530    4.4890 P   0  0  1  0  0  0  0  0  0  0  0  0
    9.4300   -4.7460    3.9520 O   0  0  0  0  0  0  0  0  0  0  0  0
    8.1610   -5.6330    5.9520 O   0  0  0  0  0  0  0  0  0  0  0  0
    8.7380   -7.1800    4.0760 O   0  0  0  0  0  0  0  0  0  0  0  0
    9.0790   -7.5720    2.7790 C   0  0  0  0  0  0  0  0  0  0  0  0
   10.0650   -8.7160    2.8770 C   0  0  1  0  0  0  0  0  0  0  0  0
   10.4170   -9.1830    1.5800 O   0  0  0  0  0  0  0  0  0  0  0  0
   11.8330   -9.3230    1.5530 C   0  0  1  0  0  0  0  0  0  0  0  0
   12.3570   -9.4000    0.2010 N   0  0  0  0  0  0  0  0  0  0  0  0
   12.6930   -8.4030   -0.6300 C   0  0  0  0  0  0  0  0  0  0  0  0
   13.1640   -8.8870   -1.7590 N   0  0  0  0  0  0  0  0  0  0  0  0
   13.1460  -10.2310   -1.6620 C   0  0  0  0  0  0  0  0  0  0  0  0
   13.5190  -11.2800   -2.5300 C   0  0  0  0  0  0  0  0  0  0  0  0
   14.0250  -11.0330   -3.7530 N   0  0  0  0  0  0  0  0  0  0  0  0
   13.3600  -12.5540   -2.1140 N   0  0  0  0  0  0  0  0  0  0  0  0
   12.8500  -12.7930   -0.8790 C   0  0  0  0  0  0  0  0  0  0  0  0
   12.4780  -11.8510   -0.0200 N   0  0  0  0  0  0  0  0  0  0  0  0
   12.6330  -10.5790   -0.4200 C   0  0  0  0  0  0  0  0  0  0  0  0
   12.2620   -8.1050    2.2990 C   0  0  2  0  0  0  0  0  0  0  0  0
   13.6190   -8.0750    2.6040 O   0  0  0  0  0  0  0  0  0  0  0  0
   11.3620   -8.2420    3.5160 C   0  0  2  0  0  0  0  0  0  0  0  0
   11.8400   -9.2690    4.3900 O   0  0  0  0  0  0  0  0  0  0  0  0
   13.1830   -9.2040    5.2530 P   0  0  0  0  0  0  0  0  0  0  0  0
   12.9350  -10.0470    6.4540 O   0  0  0  0  0  0  0  0  0  0  0  0
   14.2900   -9.7720    4.3870 O   0  0  0  0  0  0  0  0  0  0  0  0
   13.4230   -7.7600    5.5760 O   0  0  0  0  0  0  0  0  0  0  0  0
    5.0860   -4.1910    0.1800 C   0  0  1  0  0  0  0  0  0  0  0  0
    6.3710   -3.7990   -0.1700 O   0  0  0  0  0  0  0  0  0  0  0  0
    4.0360   -3.7760   -0.8520 C   0  0  1  0  0  0  0  0  0  0  0  0
    4.5890   -3.9160   -2.1740 O   0  0  0  0  0  0  0  0  0  0  0  0
    0.5360   -4.3330   -0.4790 C   0  0  0  0  0  0  0  0  0  0  0  0
   -1.4059   -5.4243   -1.7309 H   0  0  0  0  0  0  0  0  0  0  0  0
   -3.0939   -4.8599   -1.8528 H   0  0  0  0  0  0  0  0  0  0  0  0
   -1.3056   -2.8688    1.9475 H   0  0  0  0  0  0  0  0  0  0  0  0
    0.9602   -2.8028    3.0072 H   0  0  0  0  0  0  0  0  0  0  0  0
    2.9139   -3.7075    1.7884 H   0  0  0  0  0  0  0  0  0  0  0  0
    2.5498   -5.0463   -1.6668 H   0  0  0  0  0  0  0  0  0  0  0  0
    5.5028   -6.1642   -0.5831 H   0  0  0  0  0  0  0  0  0  0  0  0
    4.9953   -7.3816    1.5512 H   0  0  0  0  0  0  0  0  0  0  0  0
    6.4428   -6.2968    1.5797 H   0  0  0  0  0  0  0  0  0  0  0  0
    8.1783   -7.9013    2.2402 H   0  0  0  0  0  0  0  0  0  0  0  0
    9.5265   -6.7293    2.2316 H   0  0  0  0  0  0  0  0  0  0  0  0
    9.5853   -9.5069    3.4723 H   0  0  0  0  0  0  0  0  0  0  0  0
   12.2080  -10.2561    1.9988 H   0  0  0  0  0  0  0  0  0  0  0  0
   12.5895   -7.3322   -0.4004 H   0  0  0  0  0  0  0  0  0  0  0  0
   14.2899  -11.8153   -4.3684 H   0  0  0  0  0  0  0  0  0  0  0  0
   14.1472  -10.0617   -4.0732 H   0  0  0  0  0  0  0  0  0  0  0  0
   12.7367  -13.8419   -0.5674 H   0  0  0  0  0  0  0  0  0  0  0  0
   12.1600   -7.1605    1.7445 H   0  0  0  0  0  0  0  0  0  0  0  0
   13.7363   -8.0724    3.5870 H   0  0  0  0  0  0  0  0  0  0  0  0
   11.2896   -7.3214    4.1138 H   0  0  0  0  0  0  0  0  0  0  0  0
    4.9597   -3.7156    1.1639 H   0  0  0  0  0  0  0  0  0  0  0  0
    6.9015   -3.6372    0.6500 H   0  0  0  0  0  0  0  0  0  0  0  0
    3.7020   -2.7351   -0.7298 H   0  0  0  0  0  0  0  0  0  0  0  0
    5.5465   -4.1584   -2.1072 H   0  0  0  0  0  0  0  0  0  0  0  0
    0.4195   -4.7935   -1.4712 H   0  0  0  0  0  0  0  0  0  0  0  0
  1  2  1  0
  2  3  2  0
  2  4  1  0
  4  5  2  0
  5  6  1  0
  6  7  2  0
  7  8  1  0
  8  9  1  0
  9 10  1  0
 10 11  1  0
 11 12  1  0
 12 13  1  0
 13 14  1  0
 14 15  1  1
 14 16  2  0
 14 17  1  0
 17 18  1  0
 18 19  1  1
 18 20  2  0
 18 21  1  0
 21 22  1  0
 22 23  1  0
 23 24  1  0
 24 25  1  0
 25 26  1  0
 26 27  1  0
 27 28  2  0
 28 29  1  0
 29 30  2  0
 30 31  1  0
 30 32  1  0
 32 33  2  0
 33 34  1  0
 34 35  2  0
 25 36  1  0
 36 37  1  0
 36 38  1  0
 38 39  1  0
 39 40  1  0
 40 41  1  0
 40 42  1  0
 40 43  2  0
 11 44  1  0
 44 45  1  0
 44 46  1  0
 46 47  1  0
  8 48  2  0
  4 48  1  0
  9 46  1  0
 23 38  1  0
 26 35  1  0
 29 35  1  0
  1 49  1  0
  1 50  1  0
  5 51  1  0
  6 52  1  0
  7 53  1  0
  9 54  1  6
 11 55  1  6
 12 56  1  0
 12 57  1  0
 22 58  1  0
 22 59  1  0
 23 60  1  1
 25 61  1  1
 27 62  1  0
 31 63  1  0
 31 64  1  0
 33 65  1  0
 36 66  1  6
 37 67  1  0
 38 68  1  1
 44 69  1  1
 45 70  1  0
 46 71  1  1
 47 72  1  0
 48 73  1  0
M  CHG  5   8   1  15  -1  19  -1  41  -1  42  -1
M  END
$$$$
