@<TRIPOS>MOLECULE
LIG
   73    77     1     0     0
SMALL
bcc


@<TRIPOS>ATOM
      1 N1          -2.1610    -4.7960    -1.4210 nt         1 LIG      -0.675000
      2 C1          -1.9310    -3.9010    -0.4620 c          1 LIG       0.681700
      3 O1          -2.8110    -3.1360    -0.0690 o          1 LIG      -0.624100
      4 C2          -0.5780    -3.8410     0.1700 ca         1 LIG      -0.139600
      5 C3          -0.4330    -3.2790     1.4180 ca         1 LIG      -0.118000
      6 C4           0.8310    -3.2350     2.0040 ca         1 LIG      -0.152000
      7 C5           1.9190    -3.7360     1.3200 ca         1 LIG      -0.008300
      8 N2           1.7800    -4.2620     0.0810 na         1 LIG      -0.025100
      9 C6           2.9190    -4.7740    -0.6670 c5         1 LIG       0.208800
     10 O2           3.4670    -5.8780     0.0860 os         1 LIG      -0.381600
     11 C7           4.9000    -5.6960     0.2090 c5         1 LIG       0.084100
     12 C8           5.3450    -6.3390     1.5250 c3         1 LIG       0.210400
     13 O3           4.8200    -5.6540     2.6250 os         1 LIG      -0.598200
     14 P1           5.5180    -5.7090     4.0450 p5         1 LIG       1.443800
     15 O4           4.9270    -4.6450     4.9220 o          1 LIG      -0.838500
     16 O5           5.4630    -7.1230     4.5850 o          1 LIG      -0.838500
     17 O6           7.0400    -5.3120     3.6920 os         1 LIG      -0.750800
     18 P2           8.3960    -5.6530     4.4890 p5         1 LIG       1.505800
     19 O7           9.4300    -4.7460     3.9520 o          1 LIG      -0.851000
     20 O8           8.1610    -5.6330     5.9520 o          1 LIG      -0.851000
     21 O9           8.7380    -7.1800     4.0760 os         1 LIG      -0.569200
     22 C9           9.0790    -7.5720     2.7790 c3         1 LIG       0.216400
     23 C10         10.0650    -8.7160     2.8770 c5         1 LIG       0.118100
     24 O10         10.4170    -9.1830     1.5800 os         1 LIG      -0.450600
     25 C11         11.8330    -9.3230     1.5530 c5         1 LIG       0.228800
     26 N3          12.3570    -9.4000     0.2010 na         1 LIG      -0.177000
     27 C12         12.6930    -8.4030    -0.6300 cc         1 LIG       0.446700
     28 N4          13.1640    -8.8870    -1.7590 nd         1 LIG      -0.650100
     29 C13         13.1460   -10.2310    -1.6620 ca         1 LIG      -0.205200
     30 C14         13.5190   -11.2800    -2.5300 ca         1 LIG       0.752200
     31 N5          14.0250   -11.0330    -3.7530 nv         1 LIG      -0.998500
     32 N6          13.3600   -12.5540    -2.1140 nb         1 LIG      -0.864000
     33 C15         12.8500   -12.7930    -0.8790 ca         1 LIG       0.670900
     34 N7          12.4780   -11.8510    -0.0200 nb         1 LIG      -0.703000
     35 C16         12.6330   -10.5790    -0.4200 ca         1 LIG       0.447800
     36 C17         12.2620    -8.1050     2.2990 c5         1 LIG       0.075100
     37 O11         13.6190    -8.0750     2.6040 oh         1 LIG      -0.627800
     38 C18         11.3620    -8.2420     3.5160 c5         1 LIG       0.182100
     39 O12         11.8400    -9.2690     4.3900 os         1 LIG      -0.602200
     40 P3          13.1830    -9.2040     5.2530 p5         1 LIG       1.318900
     41 O13         12.9350   -10.0470     6.4540 o          1 LIG      -0.763833
     42 O14         14.2900    -9.7720     4.3870 o          1 LIG      -0.763833
     43 O15         13.4230    -7.7600     5.5760 o          1 LIG      -0.763833
     44 C19          5.0860    -4.1910     0.1800 c5         1 LIG       0.095100
     45 O16          6.3710    -3.7990    -0.1700 oh         1 LIG      -0.633800
     46 C20          4.0360    -3.7760    -0.8520 c5         1 LIG       0.096100
     47 O17          4.5890    -3.9160    -2.1740 oh         1 LIG      -0.626800
     48 C21          0.5360    -4.3330    -0.4790 ca         1 LIG      -0.114300
     49 H1          -1.4060    -5.4240    -1.7310 hn         1 LIG       0.321000
     50 H2          -3.0940    -4.8600    -1.8530 hn         1 LIG       0.321000
     51 H3          -1.3060    -2.8690     1.9480 ha         1 LIG       0.158000
     52 H4           0.9600    -2.8030     3.0070 ha         1 LIG       0.179000
     53 H5           2.9140    -3.7080     1.7880 h4         1 LIG       0.230000
     54 H6           2.5500    -5.0460    -1.6670 h2         1 LIG       0.080700
     55 H7           5.5030    -6.1640    -0.5830 h1         1 LIG       0.064700
     56 H8           4.9950    -7.3820     1.5510 h1         1 LIG       0.058200
     57 H9           6.4430    -6.2970     1.5800 h1         1 LIG       0.058200
     58 H10          8.1780    -7.9010     2.2400 h1         1 LIG      -0.000800
     59 H11          9.5270    -6.7290     2.2320 h1         1 LIG      -0.000800
     60 H12          9.5850    -9.5070     3.4720 h1         1 LIG       0.096700
     61 H13         12.2080   -10.2560     1.9990 h2         1 LIG       0.128700
     62 H14         12.5890    -7.3320    -0.4000 h5         1 LIG       0.088800
     63 H15         14.2900   -11.8150    -4.3680 hn         1 LIG       0.438300
     64 H16         14.1470   -10.0620    -4.0730 hn         1 LIG       0.438300
     65 H17         12.7370   -13.8420    -0.5670 h5         1 LIG       0.040100
     66 H18         12.1600    -7.1600     1.7440 h1         1 LIG       0.046700
     67 H19         13.7360    -8.0720     3.5870 ho         1 LIG       0.467000
     68 H20         11.2900    -7.3210     4.1140 h1         1 LIG       0.122700
     69 H21          4.9600    -3.7160     1.1640 h1         1 LIG       0.095700
     70 H22          6.9020    -3.6370     0.6500 ho         1 LIG       0.479000
     71 H23          3.7020    -2.7350    -0.7300 h1         1 LIG       0.070700
     72 H24          5.5460    -4.1580    -2.1070 ho         1 LIG       0.449000
     73 H25          0.4190    -4.7930    -1.4710 h4         1 LIG       0.149000
@<TRIPOS>BOND
     1     1     2 1   
     2     2     3 2   
     3     2     4 1   
     4     4     5 ar  
     5     5     6 ar  
     6     6     7 ar  
     7     7     8 2   
     8     8     9 1   
     9     9    10 1   
    10    10    11 1   
    11    11    12 1   
    12    12    13 1   
    13    13    14 1   
    14    14    15 1   
    15    14    16 1   
    16    14    17 1   
    17    17    18 1   
    18    18    19 1   
    19    18    20 1   
    20    18    21 1   
    21    21    22 1   
    22    22    23 1   
    23    23    24 1   
    24    24    25 1   
    25    25    26 1   
    26    26    27 1   
    27    27    28 2   
    28    28    29 1   
    29    29    30 ar  
    30    30    31 1   
    31    30    32 ar  
    32    32    33 ar  
    33    33    34 ar  
    34    34    35 ar  
    35    25    36 1   
    36    36    37 1   
    37    36    38 1   
    38    38    39 1   
    39    39    40 1   
    40    40    41 1   
    41    40    42 1   
    42    40    43 1   
    43    11    44 1   
    44    44    45 1   
    45    44    46 1   
    46    46    47 1   
    47     8    48 1   
    48     4    48 ar  
    49     9    46 1   
    50    23    38 1   
    51    26    35 1   
    52    29    35 ar  
    53     1    49 1   
    54     1    50 1   
    55     5    51 1   
    56     6    52 1   
    57     7    53 1   
    58     9    54 1   
    59    11    55 1   
    60    12    56 1   
    61    12    57 1   
    62    22    58 1   
    63    22    59 1   
    64    23    60 1   
    65    25    61 1   
    66    27    62 1   
    67    31    63 1   
    68    31    64 1   
    69    33    65 1   
    70    36    66 1   
    71    37    67 1   
    72    38    68 1   
    73    44    69 1   
    74    45    70 1   
    75    46    71 1   
    76    47    72 1   
    77    48    73 1   
@<TRIPOS>SUBSTRUCTURE
     1 LIG         1 TEMP              0 ****  ****    0 ROOT
